*HEADING
Official-like steady heat transfer with material data
*PART, NAME=THERMAL_PART
*NODE
1,0,0,0
2,1,0,0
3,2,0,0
4,3,0,0
*ELEMENT, TYPE=T3D2, ELSET=EALL
1,1,2
2,2,3
3,3,4
*MATERIAL, NAME=AL
*CONDUCTIVITY
237.
*SPECIFIC HEAT
900.
*DENSITY
2.7E-9
*END PART
*ASSEMBLY, NAME=ASM
*INSTANCE, NAME=P1, PART=THERMAL_PART
*END ASSEMBLY
*STEP
*HEAT TRANSFER
*TEMPERATURE
1,100.
4,20.
*OUTPUT
*NODE OUTPUT
NT11
*END STEP
