*HEADING
Coupled thermo-structural demo
*NODE
1,0.0,0,0
2,0.1,0,0
3,0.2,0,0
4,0.30000000000000004,0,0
5,0.4,0,0
6,0.5,0,0
7,0.6000000000000001,0,0
8,0.7000000000000001,0,0
9,0.8,0,0
10,0.9,0,0
11,1.0,0,0
12,1.1,0,0
13,1.2000000000000002,0,0
14,1.3,0,0
15,1.4000000000000001,0,0
16,1.5,0,0
17,1.6,0,0
18,1.7000000000000002,0,0
19,1.8,0,0
20,1.9000000000000001,0,0
** ... 44 like lines cut
*ELEMENT, TYPE=CPS4
1,1,2,3,4
*MATERIAL, NAME=MAT1
*ELASTIC
210000,0.3
*CONDUCTIVITY
45.0
*STEP, NLGEOM=YES, INC=100
*STATIC
*HEAT TRANSFER
*TEMPERATURE
1,20
*CLOAD
64,1,10.0
*OUTPUT
*NODE OUTPUT
U,NT11
*END STEP
