*HEADING
Thermal expansion bar (coupled-like)
*NODE
1,0,0,0
2,1,0,0
*ELEMENT, TYPE=T3D2
1,1,2
*MATERIAL, NAME=STEEL
*ELASTIC
210000.,0.3
*EXPANSION
1.2e-5
*STEP
*HEAT TRANSFER
*TEMPERATURE
1,100.
2,120.
*STATIC
*BOUNDARY
1,1,3,0.0
*CLOAD
2,1,0.2
*OUTPUT
*NODE OUTPUT
U,NT11
*END STEP
