*HEADING
J2 uniaxial cycle demo
*NODE
1,0,0,0
2,1,0,0
*ELEMENT, TYPE=T3D2
1,1,2
*MATERIAL, NAME=J2MAT
*ELASTIC
210000.,0.3
*PLASTIC
250.,0.0
260.,0.01
*STEP
*STATIC
*CLOAD
2,1,1.0
*OUTPUT
*ELEMENT OUTPUT
S,E
*END STEP
