*HEADING
*MATERIAL, NAME=STEEL
*ELASTIC
210000,0.3
*PLASTIC
300,0.0
*STEP
*STATIC
*OUTPUT
*NODE OUTPUT
U,NT11
*END STEP
